Circuit: * C:\Users\Wen\Desktop\SJSU\TA_EE122lab\lab7\Lab 7\checkpointF\2n7000_ekv_VT_KN.asc

Direct Newton iteration for .op point succeeded.

Date: Tue Mar 16 11:13:05 2021
Total elapsed time: 0.178 seconds.

tnom = 27
temp = 27
method = modified trap
totiter = 2101
traniter = 2088
tranpoints = 1042
accept = 1042
rejected = 0
matrix size = 8
fillins = 0
solver = Normal
Matrix Compiler1: 380 bytes object code size  0.1/0.1/[0.1]
Matrix Compiler2: off  [0.1]/0.1/0.1

