Circuit: * C:\Users\ziyig\Desktop\Wenzhi\EE 122 TA\Lab 5\2n7000_ekv_VA.asc


Date: Mon Mar 15 20:35:32 2021
Total elapsed time: 0.089 seconds.

tnom = 27
temp = 27
method = trap
totiter = 2004
traniter = 0
tranpoints = 0
accept = 0
rejected = 0
matrix size = 4
fillins = 0
solver = Normal
Matrix Compiler1:       7 opcodes  0.0/[0.0]/0.0
Matrix Compiler2: off  [0.0]/0.0/0.0

