Circuit: * C:\Users\ziyig\Desktop\Wenzhi\EE 122 TA\Lab 5\2n7000_ekv_VT_KN.asc

.OP point found by inspection.

Date: Mon Mar 15 20:29:05 2021
Total elapsed time: 0.276 seconds.

tnom = 27
temp = 27
method = trap
totiter = 2000
traniter = 0
tranpoints = 0
accept = 0
rejected = 0
matrix size = 2
fillins = 0
solver = Normal
Matrix Compiler1:       2 opcodes  0.0/[0.0]/0.0
Matrix Compiler2: 96 bytes object code size  0.0/0.0/[0.0]

