Circuit: * C:\Users\Wen\Desktop\SJSU\TA_EE122lab\lab7\checkpointB\2n7000_ekv_VA.asc


Date: Tue Mar 16 00:47:16 2021
Total elapsed time: 0.156 seconds.

tnom = 27
temp = 27
method = trap
totiter = 2004
traniter = 0
tranpoints = 0
accept = 0
rejected = 0
matrix size = 4
fillins = 0
solver = Normal
Matrix Compiler1: 118 bytes object code size  0.0/0.0/[0.0]
Matrix Compiler2: off  [0.0]/0.0/0.0

