Circuit: * C:\Users\Wen\Desktop\SJSU\TA_EE122lab\lab9\Draft2.asc

Direct Newton iteration for .op point succeeded.
Fatal Error: x1:r2: Resistance must not be zero.
