Circuit: * C:\Users\Wen\Desktop\SJSU\TA_EE122lab\lab9\opampmultivibrator - modified.asc

Direct Newton iteration failed to find .op point.  (Use ".option noopiter" to skip.)
Starting Gmin stepping
Gmin = 10
Gmin = 1.07374
Gmin = 0.115292
Gmin = 0.0123794
Gmin = 0.00132923
Gmin = 0.000142725
Gmin = 1.5325e-005
Gmin = 1.6455e-006
Gmin = 1.76685e-007
Gmin = 1.89714e-008
Gmin = 2.03704e-009
Gmin = 2.18725e-010
Gmin = 2.34854e-011
Gmin = 2.52173e-012
Gmin = 2.70769e-013
Gmin = 0
Gmin stepping succeeded in finding the operating point.


Date: Thu Apr 08 15:22:44 2021
Total elapsed time: 0.166 seconds.

tnom = 27
temp = 27
method = modified trap
totiter = 4778
traniter = 4425
tranpoints = 1540
accept = 1359
rejected = 181
matrix size = 13
fillins = 3
solver = Normal
Matrix Compiler1: 710 bytes object code size  0.2/0.1/[0.1]
Matrix Compiler2: 1.30 KB object code size  0.1/0.2/[0.1]

