Circuit: * C:\Users\Wen\Desktop\SJSU\TA_EE122lab\lab7\Lab 7\checkpointE\2n7000_ekv_VT_KN.asc

Direct Newton iteration for .op point succeeded.

Date: Tue Mar 16 11:23:49 2021
Total elapsed time: 0.360 seconds.

tnom = 27
temp = 27
method = modified trap
totiter = 2100
traniter = 2089
tranpoints = 1042
accept = 1042
rejected = 0
matrix size = 8
fillins = 0
solver = Normal
Matrix Compiler1:      22 opcodes  0.1/[0.1]/0.1
Matrix Compiler2: off  [0.1]/0.1/0.1

