Circuit: * C:\Users\Wen\Desktop\SJSU\TA_EE122lab\lab7\checkpointA\2n7000_ekv_VT_KN.asc

.OP point found by inspection.

Date: Tue Mar 16 01:41:17 2021
Total elapsed time: 0.301 seconds.

tnom = 27
temp = 27
method = trap
totiter = 2000
traniter = 0
tranpoints = 0
accept = 0
rejected = 0
matrix size = 2
fillins = 0
solver = Normal
Matrix Compiler1: 36 bytes object code size  0.0/0.0/[0.0]
Matrix Compiler2: off  [0.0]/0.0/0.0

