Circuit: * C:\Users\Wen\Desktop\SJSU\TA_EE122lab\lab4\1n4148_test.asc

WARNING: Node NC_02 is floating.

WARNING: Less than two connections to node NC_01.  This node is used by D2.
WARNING: Less than two connections to node NC_02.  This node is used by D2.
.OP point found by inspection.

Date: Sat Feb 27 23:00:54 2021
Total elapsed time: 0.255 seconds.

tnom = 27
temp = 27
method = trap
totiter = 20000
traniter = 0
tranpoints = 0
accept = 0
rejected = 0
matrix size = 6
fillins = 0
solver = Normal
Matrix Compiler1: 164 bytes object code size  0.1/0.1/[0.0]
Matrix Compiler2: off  [0.0]/0.0/0.0

