Circuit: * C:\Users\Wen\Desktop\SJSU\TA_EE122lab\lab5\1n4148_test.asc


Date: Mon Mar 01 22:52:17 2021
Total elapsed time: 1.058 seconds.

tnom = 27
temp = 27
method = trap
totiter = 23810
traniter = 0
tranpoints = 0
accept = 0
rejected = 0
matrix size = 4
fillins = 0
solver = Normal
Matrix Compiler1: 100 bytes object code size  0.0/0.0/[0.0]
Matrix Compiler2: 248 bytes object code size  0.1/0.1/[0.0]

