Questionable use of curly braces in "b1 diode 0  i={{io}}*{exp(v(diode)/{{vt}}/{{n}})-1}"
    Error: undefined symbol in: "exp([v](diode)/((vt))/((n)))-1"
Circuit: * C:\Users\Wen\Desktop\SJSU\TA_EE122lab\lab5\Diode4148.asc


Date: Tue Mar 02 00:23:18 2021
Total elapsed time: 0.113 seconds.

tnom = 27
temp = 27
method = trap
totiter = 2005
traniter = 0
tranpoints = 0
accept = 0
rejected = 0
matrix size = 4
fillins = 0
solver = Normal
Matrix Compiler1: 82 bytes object code size  0.0/0.0/[0.0]
Matrix Compiler2: 248 bytes object code size  0.1/0.0/[0.0]

