Circuit: * C:\Users\Wen\Desktop\SJSU\TA_EE122lab\lab5\Draft1.asc


Date: Thu Mar 04 01:38:19 2021
Total elapsed time: 0.098 seconds.

tnom = 27
temp = 27
method = trap
totiter = 107
traniter = 0
tranpoints = 0
accept = 0
rejected = 0
matrix size = 14
fillins = 6
solver = Normal
Matrix Compiler1: 706 bytes object code size  0.1/0.1/[0.1]
Matrix Compiler2: 1.30 KB object code size  0.1/0.1/[0.1]

