Circuit: * C:\Users\Wen\Desktop\SJSU\TA_EE122lab\lab2\Intro_LTSpice.asc

WARNING: Less than two connections to node CHECK.  This node is used by B1.
Direct Newton iteration for .op point succeeded.
.step r2=10000
.step r2=20000

Date: Tue Jan 26 02:15:28 2021
Total elapsed time: 0.096 seconds.

tnom = 27
temp = 27
method = modified trap
totiter = 2085
traniter = 2082
tranpoints = 1042
accept = 1042
rejected = 0
matrix size = 5
fillins = 0
solver = Normal
Matrix Compiler1:       7 opcodes  0.0/[0.0]/0.0
Matrix Compiler2: 241 bytes object code size  0.0/0.0/[0.0]

