Circuit: * C:\Users\Wen\Desktop\SJSU\TA_EE122lab\lab2\universalopamp.asc

Direct Newton iteration for .op point succeeded.

Date: Wed Jan 27 01:28:22 2021
Total elapsed time: 0.146 seconds.

tnom = 27
temp = 27
method = modified trap
totiter = 2114
traniter = 2107
tranpoints = 1045
accept = 1045
rejected = 0
matrix size = 10
fillins = 1
solver = Normal
Matrix Compiler1: 436 bytes object code size  0.1/0.1/[0.1]
Matrix Compiler2: off  [0.1]/0.1/0.1

