Circuit: * C:\Users\Wen\Desktop\SJSU\TA_EE122lab\lab3\CheckPointE.asc

Direct Newton iteration for .op point succeeded.

Date: Wed Feb 17 03:04:57 2021
Total elapsed time: 29.743 seconds.

tnom = 27
temp = 27
method = modified trap
totiter = 1940269
traniter = 1940247
tranpoints = 516241
accept = 371283
rejected = 144958
matrix size = 90
fillins = 4
solver = Normal
Thread vector: 19.1/6.6[5] 9.1/3.5[5] 3.9/2.4[5] 0.2/1.8[1]  2592/500
Matrix Compiler1: 3.00 KB object code size  1.7/1.1/[0.5]
Matrix Compiler2: 5.13 KB object code size  1.0/1.7/[0.3]

