Circuit: * C:\Users\Wen\Desktop\SJSU\TA_EE122lab\lab3\CheckPointC.asc


Date: Wed Feb 17 02:25:33 2021
Total elapsed time: 0.061 seconds.

tnom = 27
temp = 27
method = trap
totiter = 2014
traniter = 0
tranpoints = 0
accept = 0
rejected = 0
matrix size = 3
fillins = 0
solver = Normal
Matrix Compiler1:       3 opcodes  0.0/[0.0]/0.0
Matrix Compiler2: off  [0.0]/0.0/0.0

