Circuit: * C:\Users\Wen\Desktop\SJSU\TA_EE122lab\lab7\checkpointD\2n7000_ekv_VT_KN.asc

Direct Newton iteration for .op point succeeded.

Date: Tue Mar 16 03:27:59 2021
Total elapsed time: 0.138 seconds.

tnom = 27
temp = 27
method = trap
totiter = 13
traniter = 0
tranpoints = 0
accept = 0
rejected = 0
matrix size = 7
fillins = 0
solver = Normal
Matrix Compiler1:      14 opcodes
Matrix Compiler2: 481 bytes object code size
